LAMMPS (7 Aug 2019)
# Initialization
units		real
boundary	p p f
atom_style	full

# Assume ff info is included in data file
pair_style	lj/cut/coul/cut 10.0
bond_style  harmonic
angle_style harmonic
dihedral_style  opls

read_data	init.lammps
  orthogonal box = (0 0 0) to (50 50 529.69)
  reading atoms ...
  16264 atoms
  scanning bonds ...
  scanning angles ...
  scanning dihedrals ...
  reading bonds ...
  17216 bonds
  reading angles ...
  33326 angles
  reading dihedrals ...
  48356 dihedrals

special_bonds lj/coul 0 0 0.5

pair_modify shift yes mix geometric

# Define groups
variable bottom equal bound(all,zmin)
variable top equal bound(all,zmax)
variable fixmax equal 1.374+18.0
variable fixmin equal 107.312-18.0
region mobile block INF INF INF INF 19.374 89.312
group mobile region mobile
10064 atoms in group mobile
group fixed subtract all mobile
6200 atoms in group fixed

neighbor		2.5 bin
neigh_modify    exclude group fixed fixed

timestep 0.1

fix integrator mobile nve/limit 0.001

thermo 100

dump traj all xtc 1000 minimize.xtc
dump_modify traj unwrap yes

run 10000
  update every 1 steps, delay 10 steps, check yes
Step Temp E_pair E_mol TotEng Press
0            0 2.8930376e+08    675856.31 2.8997962e+08     59944850
Averages over the last 51 of 101 rows, steps 5000 to 10000:
Temp E_pair E_mol TotEng Press
32.9273 372.736 160603 162572 5995.34
Loop time of 1011.76 on 1 procs for 10000 steps with 16264 atoms
